Iowa_Distribution_Test_Systems/OpenDSS Model/OpenDSS Model/240_bus_test_system_Power_seq_kVA.txt

SYMMETRICAL COMPONENT POWERS BY CIRCUIT ELEMENT (first 3 phases)                                     Excess Power

Element                       Term    P1(kW)   Q1(kvar)       P2         Q2      P0      Q0       P_Norm      Q_Norm     P_Emerg    Q_Emerg

"Vsource.SOURCE"               1    -1184.2     -224.9        0.0        0.0    -0.0    -0.0
"Vsource.SOURCE"               2        0.0        0.0        0.0        0.0     0.0     0.0
"Transformer.SUB_XFMR"         1     1184.2      224.9       -0.0       -0.0     0.0     0.0        0.0        0.0        0.0        0.0
"Transformer.SUB_XFMR"         2    -1182.3     -215.7        0.0        0.0     0.0     0.0
"Transformer.SUB_REGULATOR_A"  1        0.0        0.0        0.0        0.0     0.0     0.0        0.0        0.0        0.0        0.0
"Transformer.SUB_REGULATOR_A"  2        0.0        0.0        0.0        0.0     0.0     0.0
"Transformer.SUB_REGULATOR_B"  1        0.0        0.0        0.0        0.0     0.0     0.0        0.0        0.0        0.0        0.0
"Transformer.SUB_REGULATOR_B"  2        0.0        0.0        0.0        0.0     0.0     0.0
"Transformer.SUB_REGULATOR_C"  1        0.0        0.0        0.0        0.0     0.0     0.0        0.0        0.0        0.0        0.0
"Transformer.SUB_REGULATOR_C"  2        0.0        0.0        0.0        0.0     0.0     0.0
"Transformer.T_1003"           1       15.3        3.9        0.0       -0.0     0.0    -0.0        0.0        0.0        0.0        0.0
"Transformer.T_1003"           2      -15.3       -3.8       -0.0        0.0    -0.0     0.0
"Transformer.T_1004"           1        6.9        3.4        0.0       -0.0     0.0    -0.0        0.0        0.0        0.0        0.0
"Transformer.T_1004"           2       -6.9       -3.3       -0.0        0.0    -0.0     0.0
"Transformer.T_1005"           1        4.9        1.9        0.0       -0.0     0.0    -0.0        0.0        0.0        0.0        0.0
"Transformer.T_1005"           2       -4.9       -1.9       -0.0        0.0    -0.0     0.0
"Transformer.T_1006"           1        0.0        0.0        0.0        0.0     0.0     0.0        0.0        0.0        0.0        0.0
"Transformer.T_1006"           2        0.0        0.0        0.0        0.0     0.0     0.0
"Transformer.T_1007"           1        0.0        0.0        0.0        0.0     0.0     0.0        0.0        0.0        0.0        0.0
"Transformer.T_1007"           2        0.0        0.0        0.0        0.0     0.0     0.0
"Transformer.T_1008"           1       14.2        6.5        0.0       -0.0     0.0    -0.0        0.0        0.0        0.0        0.0
"Transformer.T_1008"           2      -14.1       -6.4       -0.0        0.0    -0.0     0.0
"Transformer.T_1009"           1       17.2        6.8        0.0       -0.0     0.0    -0.0        0.0        0.0        0.0        0.0
"Transformer.T_1009"           2      -17.1       -6.8       -0.0        0.0    -0.0     0.0
"Transformer.T_1010"           1        7.2        2.8        0.0       -0.0     0.0    -0.0        0.0        0.0        0.0        0.0
"Transformer.T_1010"           2       -7.1       -2.8       -0.0        0.0    -0.0     0.0
"Transformer.T_1011"           1        0.0        0.0        0.0        0.0     0.0     0.0        0.0        0.0        0.0        0.0
"Transformer.T_1011"           2        0.0        0.0        0.0        0.0     0.0     0.0
"Transformer.T_1011"           3        0.0        0.0        0.0        0.0     0.0     0.0
"Transformer.T_1012"           1        0.0        0.0        0.0        0.0     0.0     0.0        0.0        0.0        0.0        0.0
"Transformer.T_1012"           2        0.0        0.0        0.0        0.0     0.0     0.0
"Transformer.T_1012"           3        0.0        0.0        0.0        0.0     0.0     0.0
"Transformer.T_1013"           1        1.5        0.4        0.0       -0.0     0.0    -0.0        0.0        0.0        0.0        0.0
"Transformer.T_1013"           2       -1.5       -0.4       -0.0        0.0    -0.0     0.0
"Transformer.T_1014"           1        0.0        0.0        0.0        0.0     0.0     0.0        0.0        0.0        0.0        0.0
"Transformer.T_1014"           2        0.0        0.0        0.0        0.0     0.0     0.0
"Transformer.T_1014"           3        0.0        0.0        0.0        0.0     0.0     0.0
"Transformer.T_1015"           1        0.0        0.0        0.0        0.0     0.0     0.0        0.0        0.0        0.0        0.0
"Transformer.T_1015"           2        0.0        0.0        0.0        0.0     0.0     0.0
"Transformer.T_1015"           3        0.0        0.0        0.0        0.0     0.0     0.0
"Transformer.T_1016"           1        0.0        0.0        0.0        0.0     0.0     0.0        0.0        0.0        0.0        0.0
"Transformer.T_1016"           2        0.0        0.0        0.0        0.0     0.0     0.0
"Transformer.T_1016"           3        0.0        0.0        0.0        0.0     0.0     0.0
"Transformer.T_1017"           1        0.0        0.0        0.0        0.0     0.0     0.0        0.0        0.0        0.0        0.0
"Transformer.T_1017"           2        0.0        0.0        0.0        0.0     0.0     0.0
"Transformer.T_1017"           3        0.0        0.0        0.0        0.0     0.0     0.0
"Transformer.T_2002"           1       28.0       10.3        0.0       -0.0     0.0    -0.0        0.0        0.0        0.0        0.0
"Transformer.T_2002"           2      -27.9      -10.1       -0.0        0.0    -0.0     0.0
"Transformer.T_2003"           1       14.3        3.6        0.0       -0.0     0.0    -0.0        0.0        0.0        0.0        0.0
"Transformer.T_2003"           2      -14.3       -3.6       -0.0        0.0    -0.0     0.0
"Transformer.T_2005"           1        9.0        3.6        0.0       -0.0     0.0    -0.0        0.0        0.0        0.0        0.0
"Transformer.T_2005"           2       -8.9       -3.5       -0.0        0.0    -0.0     0.0
"Transformer.T_2008"           1        0.0        0.0        0.0        0.0     0.0     0.0        0.0        0.0        0.0        0.0
"Transformer.T_2008"           2        0.0        0.0        0.0        0.0     0.0     0.0
"Transformer.T_2008"           3        0.0        0.0        0.0        0.0     0.0     0.0
"Transformer.T_2009"           1        0.0        0.0        0.0        0.0     0.0     0.0        0.0        0.0        0.0        0.0
"Transformer.T_2009"           2        0.0        0.0        0.0        0.0     0.0     0.0
"Transformer.T_2009"           3        0.0        0.0        0.0        0.0     0.0     0.0
"Transformer.T_2010"           1        2.3        0.9        0.0       -0.0     0.0    -0.0        0.0        0.0        0.0        0.0
"Transformer.T_2010"           2       -2.3       -0.9       -0.0        0.0    -0.0     0.0
"Transformer.T_2011"           1        5.4        1.8        0.0       -0.0     0.0    -0.0        0.0        0.0        0.0        0.0
"Transformer.T_2011"           2       -5.4       -1.8       -0.0        0.0    -0.0     0.0
"Transformer.T_2014"           1        0.0        0.0        0.0        0.0     0.0     0.0        0.0        0.0        0.0        0.0
"Transformer.T_2014"           2        0.0        0.0        0.0        0.0     0.0     0.0
"Transformer.T_2014"           3        0.0        0.0        0.0        0.0     0.0     0.0
"Transformer.T_2015"           1        0.0        0.0        0.0        0.0     0.0     0.0        0.0        0.0        0.0        0.0
"Transformer.T_2015"           2        0.0        0.0        0.0        0.0     0.0     0.0
"Transformer.T_2015"           3        0.0        0.0        0.0        0.0     0.0     0.0
"Transformer.T_2016"           1        0.0        0.0        0.0        0.0     0.0     0.0        0.0        0.0        0.0        0.0
"Transformer.T_2016"           2        0.0        0.0        0.0        0.0     0.0     0.0
"Transformer.T_2016"           3        0.0        0.0        0.0        0.0     0.0     0.0
"Transformer.T_2017"           1        0.0        0.0        0.0        0.0     0.0     0.0        0.0        0.0        0.0        0.0
"Transformer.T_2017"           2        0.0        0.0        0.0        0.0     0.0     0.0
"Transformer.T_2017"           3        0.0        0.0        0.0        0.0     0.0     0.0
"Transformer.T_2018"           1        0.0        0.0        0.0        0.0     0.0     0.0        0.0        0.0        0.0        0.0
"Transformer.T_2018"           2        0.0        0.0        0.0        0.0     0.0     0.0
"Transformer.T_2018"           3        0.0        0.0        0.0        0.0     0.0     0.0
"Transformer.T_2020"           1        0.0        0.0        0.0        0.0     0.0     0.0        0.0        0.0        0.0        0.0
"Transformer.T_2020"           2        0.0        0.0        0.0        0.0     0.0     0.0
"Transformer.T_2020"           3        0.0        0.0        0.0        0.0     0.0     0.0
"Transformer.T_2022"           1        0.0        0.0        0.0        0.0     0.0     0.0        0.0        0.0        0.0        0.0
"Transformer.T_2022"           2        0.0        0.0        0.0        0.0     0.0     0.0
"Transformer.T_2022"           3        0.0        0.0        0.0        0.0     0.0     0.0
"Transformer.T_2023"           1        0.0        0.0        0.0        0.0     0.0     0.0        0.0        0.0        0.0        0.0
"Transformer.T_2023"           2        0.0        0.0        0.0        0.0     0.0     0.0
"Transformer.T_2023"           3        0.0        0.0        0.0        0.0     0.0     0.0
"Transformer.T_2024"           1        0.0        0.0        0.0        0.0     0.0     0.0        0.0        0.0        0.0        0.0
"Transformer.T_2024"           2        0.0        0.0        0.0        0.0     0.0     0.0
"Transformer.T_2024"           3        0.0        0.0        0.0        0.0     0.0     0.0
"Transformer.T_2025"           1        0.0        0.0        0.0        0.0     0.0     0.0        0.0        0.0        0.0        0.0
"Transformer.T_2025"           2        0.0        0.0        0.0        0.0     0.0     0.0
"Transformer.T_2025"           3        0.0        0.0        0.0        0.0     0.0     0.0
"Transformer.T_2028"           1        0.0        0.0        0.0        0.0     0.0     0.0        0.0        0.0        0.0        0.0
"Transformer.T_2028"           2        0.0        0.0        0.0        0.0     0.0     0.0
"Transformer.T_2028"           3        0.0        0.0        0.0        0.0     0.0     0.0
"Transformer.T_2029"           1        9.5        1.9        0.0       -0.0     0.0    -0.0        0.0        0.0        0.0        0.0
"Transformer.T_2029"           2       -9.4       -1.9       -0.0        0.0    -0.0     0.0
"Transformer.T_2030"           1        5.3        2.6        0.0       -0.0     0.0    -0.0        0.0        0.0        0.0        0.0
"Transformer.T_2030"           2       -5.3       -2.6       -0.0        0.0    -0.0     0.0
"Transformer.T_2031"           1        0.0        0.0        0.0        0.0     0.0     0.0        0.0        0.0        0.0        0.0
"Transformer.T_2031"           2        0.0        0.0        0.0        0.0     0.0     0.0
"Transformer.T_2031"           3        0.0        0.0        0.0        0.0     0.0     0.0
"Transformer.T_2032"           1        2.2        1.0        0.0       -0.0     0.0    -0.0        0.0        0.0        0.0        0.0
"Transformer.T_2032"           2       -2.2       -1.0       -0.0        0.0    -0.0     0.0
"Transformer.T_2034"           1        3.6        1.8        0.0       -0.0     0.0    -0.0        0.0        0.0        0.0        0.0
"Transformer.T_2034"           2       -3.6       -1.8       -0.0        0.0    -0.0     0.0
"Transformer.T_2035"           1        3.9        1.4        0.0       -0.0     0.0    -0.0        0.0        0.0        0.0        0.0
"Transformer.T_2035"           2       -3.9       -1.4       -0.0        0.0    -0.0     0.0
"Transformer.T_2037"           1        4.0        1.3        0.0       -0.0     0.0    -0.0        0.0        0.0        0.0        0.0
"Transformer.T_2037"           2       -3.9       -1.3       -0.0        0.0    -0.0     0.0
"Transformer.T_2040"           1       82.2       24.9        0.0       -0.0     0.0    -0.0        0.0        0.0        0.0        0.0
"Transformer.T_2040"           2      -81.8      -23.8       -0.0        0.0    -0.0     0.0
"Transformer.T_2041"           1        1.9        0.4        0.0       -0.0     0.0    -0.0        0.0        0.0        0.0        0.0
"Transformer.T_2041"           2       -1.9       -0.4       -0.0        0.0    -0.0     0.0
"Transformer.T_2042"           1        4.2        2.1        0.0       -0.0     0.0    -0.0        0.0        0.0        0.0        0.0
"Transformer.T_2042"           2       -4.2       -2.0       -0.0        0.0    -0.0     0.0
"Transformer.T_2043"           1        6.5        1.6        0.0       -0.0     0.0    -0.0        0.0        0.0        0.0        0.0
"Transformer.T_2043"           2       -6.5       -1.6       -0.0        0.0    -0.0     0.0
"Transformer.T_2045"           1        0.0        0.0        0.0        0.0     0.0     0.0        0.0        0.0        0.0        0.0
"Transformer.T_2045"           2        0.0        0.0        0.0        0.0     0.0     0.0
"Transformer.T_2045"           3        0.0        0.0        0.0        0.0     0.0     0.0
"Transformer.T_2046"           1        0.0        0.0        0.0        0.0     0.0     0.0        0.0        0.0        0.0        0.0
"Transformer.T_2046"           2        0.0        0.0        0.0        0.0     0.0     0.0
"Transformer.T_2046"           3        0.0        0.0        0.0        0.0     0.0     0.0
"Transformer.T_2047"           1        0.0        0.0        0.0        0.0     0.0     0.0        0.0        0.0        0.0        0.0
"Transformer.T_2047"           2        0.0        0.0        0.0        0.0     0.0     0.0
"Transformer.T_2047"           3        0.0        0.0        0.0        0.0     0.0     0.0
"Transformer.T_2048"           1        0.0        0.0        0.0        0.0     0.0     0.0        0.0        0.0        0.0        0.0
"Transformer.T_2048"           2        0.0        0.0        0.0        0.0     0.0     0.0
"Transformer.T_2048"           3        0.0        0.0        0.0        0.0     0.0     0.0
"Transformer.T_2049"           1        0.0        0.0        0.0        0.0     0.0     0.0        0.0        0.0        0.0        0.0
"Transformer.T_2049"           2        0.0        0.0        0.0        0.0     0.0     0.0
"Transformer.T_2049"           3        0.0        0.0        0.0        0.0     0.0     0.0
"Transformer.T_2050"           1        0.0        0.0        0.0        0.0     0.0     0.0        0.0        0.0        0.0        0.0
"Transformer.T_2050"           2        0.0        0.0        0.0        0.0     0.0     0.0
"Transformer.T_2050"           3        0.0        0.0        0.0        0.0     0.0     0.0
"Transformer.T_2051"           1        0.0        0.0        0.0        0.0     0.0     0.0        0.0        0.0        0.0        0.0
"Transformer.T_2051"           2        0.0        0.0        0.0        0.0     0.0     0.0
"Transformer.T_2051"           3        0.0        0.0        0.0        0.0     0.0     0.0
"Transformer.T_2052"           1       40.2       17.4        0.0       -0.0     0.0    -0.0        0.0        0.0        0.0        0.0
"Transformer.T_2052"           2      -40.0      -17.1       -0.0        0.0    -0.0     0.0
"Transformer.T_2053"           1        4.3        2.0        0.0       -0.0     0.0    -0.0        0.0        0.0        0.0        0.0
"Transformer.T_2053"           2       -4.3       -2.0       -0.0        0.0    -0.0     0.0
"Transformer.T_2054"           1        0.0        0.0        0.0        0.0     0.0     0.0        0.0        0.0        0.0        0.0
"Transformer.T_2054"           2        0.0        0.0        0.0        0.0     0.0     0.0
"Transformer.T_2054"           3        0.0        0.0        0.0        0.0     0.0     0.0
"Transformer.T_2055"           1        0.0        0.0        0.0        0.0     0.0     0.0        0.0        0.0        0.0        0.0
"Transformer.T_2055"           2        0.0        0.0        0.0        0.0     0.0     0.0
"Transformer.T_2055"           3        0.0        0.0        0.0        0.0     0.0     0.0
"Transformer.T_2056"           1        0.0        0.0        0.0        0.0     0.0     0.0        0.0        0.0        0.0        0.0
"Transformer.T_2056"           2        0.0        0.0        0.0        0.0     0.0     0.0
"Transformer.T_2056"           3        0.0        0.0        0.0        0.0     0.0     0.0
"Transformer.T_2058"           1       31.5       11.6        0.0       -0.0     0.0    -0.0        0.0        0.0        0.0        0.0
"Transformer.T_2058"           2      -31.5      -11.4       -0.0        0.0    -0.0     0.0
"Transformer.T_2059"           1        0.0        0.0        0.0        0.0     0.0     0.0        0.0        0.0        0.0        0.0
"Transformer.T_2059"           2        0.0        0.0        0.0        0.0     0.0     0.0
"Transformer.T_2059"           3        0.0        0.0        0.0        0.0     0.0     0.0
"Transformer.T_2060"           1        0.0        0.0        0.0        0.0     0.0     0.0        0.0        0.0        0.0        0.0
"Transformer.T_2060"           2        0.0        0.0        0.0        0.0     0.0     0.0
"Transformer.T_2060"           3        0.0        0.0        0.0        0.0     0.0     0.0
"Transformer.T_3002"           1       19.9        7.3        0.0       -0.0     0.0    -0.0        0.0        0.0        0.0        0.0
"Transformer.T_3002"           2      -19.6       -7.1       -0.0        0.0    -0.0     0.0
"Transformer.T_3004"           1        3.1        1.5        0.0       -0.0     0.0    -0.0        0.0        0.0        0.0        0.0
"Transformer.T_3004"           2       -3.1       -1.5       -0.0        0.0    -0.0     0.0
"Transformer.T_3006"           1        4.0        1.8        0.0       -0.0     0.0    -0.0        0.0        0.0        0.0        0.0
"Transformer.T_3006"           2       -4.0       -1.8       -0.0        0.0    -0.0     0.0
"Transformer.T_3007"           1        9.5        4.6        0.0       -0.0     0.0    -0.0        0.0        0.0        0.0        0.0
"Transformer.T_3007"           2       -9.4       -4.6       -0.0        0.0    -0.0     0.0
"Transformer.T_3009"           1        0.0        0.0        0.0        0.0     0.0     0.0        0.0        0.0        0.0        0.0
"Transformer.T_3009"           2        0.0        0.0        0.0        0.0     0.0     0.0
"Transformer.T_3009"           3        0.0        0.0        0.0        0.0     0.0     0.0
"Transformer.T_3010"           1        0.0        0.0        0.0        0.0     0.0     0.0        0.0        0.0        0.0        0.0
"Transformer.T_3010"           2        0.0        0.0        0.0        0.0     0.0     0.0
"Transformer.T_3010"           3        0.0        0.0        0.0        0.0     0.0     0.0
"Transformer.T_3011"           1        0.0        0.0        0.0        0.0     0.0     0.0        0.0        0.0        0.0        0.0
"Transformer.T_3011"           2        0.0        0.0        0.0        0.0     0.0     0.0
"Transformer.T_3011"           3        0.0        0.0        0.0        0.0     0.0     0.0
"Transformer.T_3012"           1        0.0        0.0        0.0        0.0     0.0     0.0        0.0        0.0        0.0        0.0
"Transformer.T_3012"           2        0.0        0.0        0.0        0.0     0.0     0.0
"Transformer.T_3012"           3        0.0        0.0        0.0        0.0     0.0     0.0
"Transformer.T_3013"           1        0.0        0.0        0.0        0.0     0.0     0.0        0.0        0.0        0.0        0.0
"Transformer.T_3013"           2        0.0        0.0        0.0        0.0     0.0     0.0
"Transformer.T_3013"           3        0.0        0.0        0.0        0.0     0.0     0.0
"Transformer.T_3014"           1        0.0        0.0        0.0        0.0     0.0     0.0        0.0        0.0        0.0        0.0
"Transformer.T_3014"           2        0.0        0.0        0.0        0.0     0.0     0.0
"Transformer.T_3014"           3        0.0        0.0        0.0        0.0     0.0     0.0
"Transformer.T_3016"           1        0.0        0.0        0.0        0.0     0.0     0.0        0.0        0.0        0.0        0.0
"Transformer.T_3016"           2        0.0        0.0        0.0        0.0     0.0     0.0
"Transformer.T_3016"           3        0.0        0.0        0.0        0.0     0.0     0.0
"Transformer.T_3017"           1        0.0        0.0        0.0        0.0     0.0     0.0        0.0        0.0        0.0        0.0
"Transformer.T_3017"           2        0.0        0.0        0.0        0.0     0.0     0.0
"Transformer.T_3017"           3        0.0        0.0        0.0        0.0     0.0     0.0
"Transformer.T_3018"           1        0.0        0.0        0.0        0.0     0.0     0.0        0.0        0.0        0.0        0.0
"Transformer.T_3018"           2        0.0        0.0        0.0        0.0     0.0     0.0
"Transformer.T_3018"           3        0.0        0.0        0.0        0.0     0.0     0.0
"Transformer.T_3019"           1        0.0        0.0        0.0        0.0     0.0     0.0        0.0        0.0        0.0        0.0
"Transformer.T_3019"           2        0.0        0.0        0.0        0.0     0.0     0.0
"Transformer.T_3019"           3        0.0        0.0        0.0        0.0     0.0     0.0
"Transformer.T_3020"           1        0.0        0.0        0.0        0.0     0.0     0.0        0.0        0.0        0.0        0.0
"Transformer.T_3020"           2        0.0        0.0        0.0        0.0     0.0     0.0
"Transformer.T_3020"           3        0.0        0.0        0.0        0.0     0.0     0.0
"Transformer.T_3021"           1        0.0        0.0        0.0        0.0     0.0     0.0        0.0        0.0        0.0        0.0
...
"Line.L_1001_1002"             1       89.2       19.4       -0.0       -0.0    -0.0     0.0        0.0        0.0        0.0        0.0
"Line.L_1001_1002"             2      -89.2      -31.4        0.0        0.0     0.0    -0.0
"Line.L_1002_1003"             1       15.3        2.8        0.0       -0.0     0.0    -0.0        0.0        0.0        0.0        0.0
"Line.L_1002_1003"             2      -15.3       -3.9       -0.0        0.0    -0.0     0.0
"Line.L_1002_1004"             1       73.9       28.6       -0.0       -0.0    -0.0     0.0        0.0        0.0        0.0        0.0
"Line.L_1002_1004"             2      -73.9      -28.6        0.0        0.0     0.0    -0.0
"Line.L_1004_1005"             1       67.0       25.3       -0.0       -0.0    -0.0     0.0        0.0        0.0        0.0        0.0
"Line.L_1004_1005"             2      -67.0      -25.3        0.0        0.0     0.0    -0.0
"Line.L_1005_1006"             1       62.0       23.3       -0.0       -0.0    -0.0     0.0        0.0        0.0        0.0        0.0
"Line.L_1005_1006"             2      -62.0      -23.4        0.0        0.0     0.0    -0.0
"Line.L_1006_1007"             1        0.0        0.0        0.0        0.0     0.0     0.0        0.0        0.0        0.0        0.0
"Line.L_1006_1007"             2        0.0        0.0        0.0        0.0     0.0     0.0
"Line.L_1006_1008"             1       52.8       19.1        0.0        0.0    -0.0     0.0        0.0        0.0        0.0        0.0
"Line.L_1006_1008"             2      -52.8      -19.1       -0.0       -0.0     0.0    -0.0
"Line.L_1008_1009"             1       38.6       12.6        0.0        0.0    -0.0     0.0        0.0        0.0        0.0        0.0
"Line.L_1008_1009"             2      -38.6      -12.6       -0.0       -0.0     0.0    -0.0
"Line.L_1009_1010"             1        7.2        2.8        0.0       -0.0     0.0    -0.0        0.0        0.0        0.0        0.0
"Line.L_1009_1010"             2       -7.2       -2.8       -0.0        0.0    -0.0     0.0
"Line.L_1009_1011"             1       14.2        3.0        0.0        0.0    -0.0     0.0        0.0        0.0        0.0        0.0
"Line.L_1009_1011"             2      -14.2       -3.2       -0.0       -0.0     0.0    -0.0
"Line.L_1011_1012"             1       11.1        2.1        0.0        0.0    -0.0     0.0        0.0        0.0        0.0        0.0
"Line.L_1011_1012"             2      -11.1       -2.3       -0.0       -0.0     0.0    -0.0
"Line.L_1012_1013"             1        8.0        1.2        0.0        0.0    -0.0     0.0        0.0        0.0        0.0        0.0
"Line.L_1012_1013"             2       -8.0       -2.1       -0.0       -0.0     0.0    -0.0
"Line.L_1013_1014"             1        0.0        0.0        0.0        0.0     0.0     0.0        0.0        0.0        0.0        0.0
"Line.L_1013_1014"             2        0.0        0.0        0.0        0.0     0.0     0.0
"Line.L_1014_1015"             1        0.0        0.0        0.0        0.0     0.0     0.0        0.0        0.0        0.0        0.0
"Line.L_1014_1015"             2        0.0        0.0        0.0        0.0     0.0     0.0
"Line.L_1013_1016"             1        0.0        0.0        0.0        0.0     0.0     0.0        0.0        0.0        0.0        0.0
"Line.L_1013_1016"             2        0.0        0.0        0.0        0.0     0.0     0.0
"Line.L_1016_1017"             1        0.0        0.0        0.0        0.0     0.0     0.0        0.0        0.0        0.0        0.0
"Line.L_1016_1017"             2        0.0        0.0        0.0        0.0     0.0     0.0
"Line.L_2001_2002"             1      343.0       44.6       -0.0        0.0     0.0     0.0        0.0        0.0        0.0        0.0
"Line.L_2001_2002"             2     -342.9      -50.2        0.0       -0.0    -0.0    -0.0
"Line.L_2002_2003"             1      314.9       39.9       -0.0        0.0     0.0     0.0        0.0        0.0        0.0        0.0
"Line.L_2002_2003"             2     -314.9      -39.9        0.0       -0.0    -0.0    -0.0
"Line.L_2003_2004"             1      300.5       36.3       -0.0        0.0     0.0     0.0        0.0        0.0        0.0        0.0
"Line.L_2003_2004"             2     -300.5      -36.2        0.0       -0.0    -0.0    -0.0
"Line.L_2004_2005"             1      300.5       36.2       -0.0        0.0     0.0     0.0        0.0        0.0        0.0        0.0
"Line.L_2004_2005"             2     -300.5      -36.2        0.0       -0.0    -0.0    -0.0
"Line.L_2005_2006"             1      291.5       32.7       -0.0        0.0     0.0     0.0        0.0        0.0        0.0        0.0
"Line.L_2005_2006"             2     -291.5      -32.7        0.0       -0.0    -0.0    -0.0
"Line.L_2006_2007"             1        0.0        0.0        0.0        0.0     0.0     0.0        0.0        0.0        0.0        0.0
"Line.L_2006_2007"             2        0.0        0.0        0.0        0.0     0.0     0.0
"Line.L_2007_2008"             1        0.0        0.0        0.0        0.0     0.0     0.0        0.0        0.0        0.0        0.0
"Line.L_2007_2008"             2        0.0        0.0        0.0        0.0     0.0     0.0
"Line.L_2007_2009"             1        0.0        0.0        0.0        0.0     0.0     0.0        0.0        0.0        0.0        0.0
"Line.L_2007_2009"             2        0.0        0.0        0.0        0.0     0.0     0.0
"Line.L_2006_2010"             1      288.2       31.3       -0.0        0.0     0.0     0.0        0.0        0.0        0.0        0.0
"Line.L_2006_2010"             2     -288.2      -31.3        0.0       -0.0    -0.0    -0.0
"Line.L_2010_2011"             1      285.9       30.4       -0.0        0.0     0.0     0.0        0.0        0.0        0.0        0.0
"Line.L_2010_2011"             2     -285.9      -30.4        0.0       -0.0    -0.0    -0.0
"Line.L_2011_2012"             1      280.5       28.7       -0.0        0.0     0.0     0.0        0.0        0.0        0.0        0.0
"Line.L_2011_2012"             2     -280.5      -28.7        0.0       -0.0    -0.0    -0.0
"Line.L_2013_2014"             1       13.9        3.2       -0.0        0.0     0.0     0.0        0.0        0.0        0.0        0.0
"Line.L_2013_2014"             2      -13.9       -3.2        0.0       -0.0    -0.0    -0.0
"Line.L_2014_2015"             1        0.0        0.0        0.0        0.0     0.0     0.0        0.0        0.0        0.0        0.0
"Line.L_2014_2015"             2        0.0        0.0        0.0        0.0     0.0     0.0
"Line.L_2014_2016"             1        9.6        1.8       -0.0        0.0     0.0     0.0        0.0        0.0        0.0        0.0
"Line.L_2014_2016"             2       -9.6       -1.8        0.0       -0.0    -0.0    -0.0
"Line.L_2016_2017"             1        8.0        1.5       -0.0        0.0     0.0     0.0        0.0        0.0        0.0        0.0
"Line.L_2016_2017"             2       -8.0       -2.0        0.0       -0.0    -0.0    -0.0
"Line.L_2017_2018"             1        2.8       -0.5       -0.0        0.0     0.0     0.0        0.0        0.0        0.0        0.0
"Line.L_2017_2018"             2       -2.8       -0.8        0.0       -0.0    -0.0    -0.0
"Line.L_2013_2019"             1      266.5       25.5        0.0        0.0     0.0     0.0        0.0        0.0        0.0        0.0
"Line.L_2013_2019"             2     -266.5      -25.5       -0.0       -0.0    -0.0    -0.0
"Line.L_2019_2020"             1        0.0        0.0        0.0        0.0     0.0     0.0        0.0        0.0        0.0        0.0
"Line.L_2019_2020"             2        0.0        0.0        0.0        0.0     0.0     0.0
"Line.L_2019_2021"             1      263.5       25.1        0.0        0.0     0.0     0.0        0.0        0.0        0.0        0.0
"Line.L_2019_2021"             2     -263.5      -25.1       -0.0       -0.0    -0.0    -0.0
"Line.L_2021_2022"             1        0.0        0.0        0.0        0.0     0.0     0.0        0.0        0.0        0.0        0.0
"Line.L_2021_2022"             2        0.0        0.0        0.0        0.0     0.0     0.0
"Line.L_2022_2023"             1        0.0        0.0        0.0        0.0     0.0     0.0        0.0        0.0        0.0        0.0
"Line.L_2022_2023"             2        0.0        0.0        0.0        0.0     0.0     0.0
"Line.L_2023_2024"             1        0.0        0.0        0.0        0.0     0.0     0.0        0.0        0.0        0.0        0.0
"Line.L_2023_2024"             2        0.0        0.0        0.0        0.0     0.0     0.0
"Line.L_2024_2025"             1        0.0        0.0        0.0        0.0     0.0     0.0        0.0        0.0        0.0        0.0
"Line.L_2024_2025"             2        0.0        0.0        0.0        0.0     0.0     0.0
"Line.L_2026_2027"             1      254.7       23.3       -0.0        0.0     0.0    -0.0        0.0        0.0        0.0        0.0
"Line.L_2026_2027"             2     -254.7      -23.3        0.0       -0.0    -0.0     0.0
"Line.L_2027_2028"             1       18.1        3.7       -0.0       -0.0    -0.0    -0.0        0.0        0.0        0.0        0.0
"Line.L_2027_2028"             2      -18.1       -4.5        0.0        0.0     0.0     0.0
"Line.L_2028_2029"             1       18.1        4.5       -0.0       -0.0    -0.0    -0.0        0.0        0.0        0.0        0.0
"Line.L_2028_2029"             2      -18.1       -4.9        0.0        0.0     0.0     0.0
"Line.L_2029_2030"             1        8.6        3.0       -0.0       -0.0    -0.0    -0.0        0.0        0.0        0.0        0.0
"Line.L_2029_2030"             2       -8.6       -3.5        0.0        0.0     0.0     0.0
"Line.L_2030_2031"             1        3.3        0.9       -0.0       -0.0    -0.0    -0.0        0.0        0.0        0.0        0.0
"Line.L_2030_2031"             2       -3.3       -1.6        0.0        0.0     0.0     0.0
"Line.L_2027_2032"             1      236.6       19.6       -0.0        0.0     0.0    -0.0        0.0        0.0        0.0        0.0
"Line.L_2027_2032"             2     -236.6      -19.6        0.0       -0.0    -0.0     0.0
"Line.L_2032_2033"             1      234.4       18.6       -0.0        0.0     0.0    -0.0        0.0        0.0        0.0        0.0
"Line.L_2032_2033"             2     -234.4      -18.6        0.0       -0.0    -0.0     0.0
"Line.L_2033_2034"             1        3.6        1.8        0.0       -0.0     0.0    -0.0        0.0        0.0        0.0        0.0
"Line.L_2033_2034"             2       -3.6       -1.8       -0.0        0.0    -0.0     0.0
"Line.L_2033_2035"             1      230.8       16.9       -0.0        0.0     0.0    -0.0        0.0        0.0        0.0        0.0
"Line.L_2033_2035"             2     -230.8      -16.9        0.0       -0.0    -0.0     0.0
"Line.L_2035_2036"             1      226.8       15.4       -0.0        0.0     0.0    -0.0        0.0        0.0        0.0        0.0
"Line.L_2035_2036"             2     -226.8      -15.4        0.0       -0.0    -0.0     0.0
"Line.L_2036_2037"             1      226.8       15.4       -0.0        0.0     0.0    -0.0        0.0        0.0        0.0        0.0
"Line.L_2036_2037"             2     -226.8      -15.4        0.0       -0.0    -0.0     0.0
"Line.L_2037_2038"             1      222.9       14.1       -0.0        0.0     0.0    -0.0        0.0        0.0        0.0        0.0
"Line.L_2037_2038"             2     -222.9      -14.1        0.0       -0.0    -0.0     0.0
"Line.L_2038_2039"             1      222.9       66.1       -0.0        0.0     0.0    -0.0        0.0        0.0        0.0        0.0
"Line.L_2038_2039"             2     -222.9      -66.1        0.0       -0.0    -0.0     0.0
"Line.L_2039_2040"             1       84.1       25.3        0.0       -0.0     0.0    -0.0        0.0        0.0        0.0        0.0
"Line.L_2039_2040"             2      -84.1      -25.3       -0.0        0.0    -0.0     0.0
"Line.L_2040_2041"             1        1.9        0.4        0.0       -0.0     0.0    -0.0        0.0        0.0        0.0        0.0
"Line.L_2040_2041"             2       -1.9       -0.4       -0.0        0.0    -0.0     0.0
"Line.L_2039_2042"             1      138.8       40.8       -0.0        0.0     0.0    -0.0        0.0        0.0        0.0        0.0
"Line.L_2039_2042"             2     -138.8      -40.9        0.0       -0.0    -0.0     0.0
"Line.L_2042_2043"             1      134.5       38.9       -0.0        0.0     0.0    -0.0        0.0        0.0        0.0        0.0
"Line.L_2042_2043"             2     -134.5      -39.4        0.0       -0.0    -0.0     0.0
"Line.L_2043_2044"             1      128.0       37.7       -0.0        0.0     0.0    -0.0        0.0        0.0        0.0        0.0
"Line.L_2043_2044"             2     -128.0      -38.7        0.0       -0.0    -0.0     0.0
"Line.L_2044_2045"             1        0.0        0.0        0.0        0.0     0.0     0.0        0.0        0.0        0.0        0.0
"Line.L_2044_2045"             2        0.0        0.0        0.0        0.0     0.0     0.0
"Line.L_2045_2046"             1        0.0        0.0        0.0        0.0     0.0     0.0        0.0        0.0        0.0        0.0
"Line.L_2045_2046"             2        0.0        0.0        0.0        0.0     0.0     0.0
"Line.L_2045_2047"             1        0.0        0.0        0.0        0.0     0.0     0.0        0.0        0.0        0.0        0.0
"Line.L_2045_2047"             2        0.0        0.0        0.0        0.0     0.0     0.0
"Line.L_2047_2048"             1        0.0        0.0        0.0        0.0     0.0     0.0        0.0        0.0        0.0        0.0
"Line.L_2047_2048"             2        0.0        0.0        0.0        0.0     0.0     0.0
"Line.L_2044_2049"             1       53.3       20.2        0.0        0.0    -0.0     0.0        0.0        0.0        0.0        0.0
"Line.L_2044_2049"             2      -53.3      -20.6       -0.0       -0.0     0.0    -0.0
"Line.L_2049_2050"             1       49.7       19.3        0.0        0.0    -0.0     0.0        0.0        0.0        0.0        0.0
"Line.L_2049_2050"             2      -49.7      -19.7       -0.0       -0.0     0.0    -0.0
"Line.L_2050_2051"             1       46.0       19.1        0.0        0.0    -0.0     0.0        0.0        0.0        0.0        0.0
"Line.L_2050_2051"             2      -46.0      -19.5       -0.0       -0.0     0.0    -0.0
"Line.L_2051_2052"             1       40.2       17.0        0.0       -0.0     0.0    -0.0        0.0        0.0        0.0        0.0
"Line.L_2051_2052"             2      -40.2      -17.4       -0.0        0.0    -0.0     0.0
"Line.L_2044_2053"             1       56.6       13.1       -0.0       -0.0    -0.0    -0.0        0.0        0.0        0.0        0.0
"Line.L_2044_2053"             2      -56.6      -14.5        0.0        0.0     0.0     0.0
"Line.L_2053_2054"             1       16.2        5.3       -0.0       -0.0    -0.0    -0.0        0.0        0.0        0.0        0.0
"Line.L_2053_2054"             2      -16.2       -5.7        0.0        0.0     0.0     0.0
"Line.L_2054_2055"             1        9.0        2.2       -0.0       -0.0    -0.0    -0.0        0.0        0.0        0.0        0.0
"Line.L_2054_2055"             2       -9.0       -2.7        0.0        0.0     0.0     0.0
"Line.L_2055_2056"             1        4.7        1.4       -0.0       -0.0    -0.0    -0.0        0.0        0.0        0.0        0.0
"Line.L_2055_2056"             2       -4.7       -2.0        0.0        0.0     0.0     0.0
"Line.L_2053_2057"             1       36.1        7.2       -0.0        0.0     0.0     0.0        0.0        0.0        0.0        0.0
"Line.L_2053_2057"             2      -36.1       -9.4        0.0       -0.0    -0.0    -0.0
"Line.L_2057_2058"             1       31.5       10.4        0.0       -0.0     0.0    -0.0        0.0        0.0        0.0        0.0
"Line.L_2057_2058"             2      -31.5      -11.6       -0.0        0.0    -0.0     0.0
"Line.L_2057_2059"             1        4.6       -1.0       -0.0        0.0     0.0     0.0        0.0        0.0        0.0        0.0
"Line.L_2057_2059"             2       -4.6       -1.0        0.0       -0.0    -0.0    -0.0
"Line.L_2059_2060"             1        1.9       -0.3       -0.0        0.0     0.0    -0.0        0.0        0.0        0.0        0.0
"Line.L_2059_2060"             2       -1.9       -0.6        0.0       -0.0    -0.0     0.0
"Line.L_3001_3003"             1      750.1      151.7        0.0       -0.0    -0.0    -0.0        0.0        0.0        0.0        0.0
"Line.L_3001_3003"             2     -749.3     -160.5        0.0        0.0     0.0     0.0
"Line.L_3003_3002"             1       19.9        7.0        0.0       -0.0     0.0    -0.0        0.0        0.0        0.0        0.0
"Line.L_3003_3002"             2      -19.9       -7.3       -0.0        0.0    -0.0     0.0
"Line.L_3003_3004"             1        3.1        1.3        0.0       -0.0     0.0    -0.0        0.0        0.0        0.0        0.0
"Line.L_3003_3004"             2       -3.1       -1.5       -0.0        0.0    -0.0     0.0
"Line.L_3003_3005"             1      726.3      152.2       -0.0       -0.0    -0.0    -0.0        0.0        0.0        0.0        0.0
"Line.L_3003_3005"             2     -725.7     -159.8        0.0        0.0     0.1     0.0
"Line.L_3005_3006"             1       13.5        6.4        0.0       -0.0     0.0    -0.0        0.0        0.0        0.0        0.0
"Line.L_3005_3006"             2      -13.5       -6.4       -0.0        0.0    -0.0     0.0
"Line.L_3006_3007"             1        9.5        4.6        0.0       -0.0     0.0    -0.0        0.0        0.0        0.0        0.0
"Line.L_3006_3007"             2       -9.5       -4.6       -0.0        0.0    -0.0     0.0
"Line.L_3005_3008"             1      712.2      153.4       -0.0       -0.0    -0.1    -0.0        0.0        0.0        0.0        0.0
"Line.L_3005_3008"             2     -712.1     -153.4        0.0        0.0     0.1     0.0
"Line.L_3008_3009"             1        0.0        0.0        0.0        0.0     0.0     0.0        0.0        0.0        0.0        0.0
"Line.L_3008_3009"             2        0.0        0.0        0.0        0.0     0.0     0.0
"Line.L_3009_3010"             1        0.0        0.0        0.0        0.0     0.0     0.0        0.0        0.0        0.0        0.0
"Line.L_3009_3010"             2        0.0        0.0        0.0        0.0     0.0     0.0
"Line.L_3010_3011"             1        0.0        0.0        0.0        0.0     0.0     0.0        0.0        0.0        0.0        0.0
"Line.L_3010_3011"             2        0.0        0.0        0.0        0.0     0.0     0.0
"Line.L_3011_3012"             1        0.0        0.0        0.0        0.0     0.0     0.0        0.0        0.0        0.0        0.0
"Line.L_3011_3012"             2        0.0        0.0        0.0        0.0     0.0     0.0
"Line.L_3008_3013"             1        0.0        0.0        0.0        0.0     0.0     0.0        0.0        0.0        0.0        0.0
"Line.L_3008_3013"             2        0.0        0.0        0.0        0.0     0.0     0.0
"Line.L_3013_3014"             1        0.0        0.0        0.0        0.0     0.0     0.0        0.0        0.0        0.0        0.0
"Line.L_3013_3014"             2        0.0        0.0        0.0        0.0     0.0     0.0
"Line.L_3008_3015"             1      686.2      143.9       -0.0       -0.0    -0.1    -0.0        0.0        0.0        0.0        0.0
"Line.L_3008_3015"             2     -686.2     -143.8        0.0        0.0     0.1     0.0
"Line.L_3015_3016"             1        0.0        0.0        0.0        0.0     0.0     0.0        0.0        0.0        0.0        0.0
"Line.L_3015_3016"             2        0.0        0.0        0.0        0.0     0.0     0.0
"Line.L_3016_3017"             1        0.0        0.0        0.0        0.0     0.0     0.0        0.0        0.0        0.0        0.0
"Line.L_3016_3017"             2        0.0        0.0        0.0        0.0     0.0     0.0
"Line.L_3015_3018"             1        0.0        0.0        0.0        0.0     0.0     0.0        0.0        0.0        0.0        0.0
"Line.L_3015_3018"             2        0.0        0.0        0.0        0.0     0.0     0.0
"Line.L_3018_3019"             1        0.0        0.0        0.0        0.0     0.0     0.0        0.0        0.0        0.0        0.0
"Line.L_3018_3019"             2        0.0        0.0        0.0        0.0     0.0     0.0
"Line.L_3019_3020"             1        0.0        0.0        0.0        0.0     0.0     0.0        0.0        0.0        0.0        0.0
"Line.L_3019_3020"             2        0.0        0.0        0.0        0.0     0.0     0.0
"Line.L_3020_3021"             1        0.0        0.0        0.0        0.0     0.0     0.0        0.0        0.0        0.0        0.0
"Line.L_3020_3021"             2        0.0        0.0        0.0        0.0     0.0     0.0
"Line.L_3015_3022"             1      646.9      128.2       -0.0       -0.0    -0.1    -0.1        0.0        0.0        0.0        0.0
"Line.L_3015_3022"             2     -646.9     -128.2        0.0        0.0     0.1     0.1
"Line.L_3022_3023"             1        0.0        0.0        0.0        0.0     0.0     0.0        0.0        0.0        0.0        0.0
"Line.L_3022_3023"             2        0.0        0.0        0.0        0.0     0.0     0.0
"Line.L_3023_3024"             1        0.0        0.0        0.0        0.0     0.0     0.0        0.0        0.0        0.0        0.0
"Line.L_3023_3024"             2        0.0        0.0        0.0        0.0     0.0     0.0
"Line.L_3024_3025"             1        0.0        0.0        0.0        0.0     0.0     0.0        0.0        0.0        0.0        0.0
"Line.L_3024_3025"             2        0.0        0.0        0.0        0.0     0.0     0.0
"Line.L_3022_3026"             1        0.0        0.0        0.0        0.0     0.0     0.0        0.0        0.0        0.0        0.0
"Line.L_3022_3026"             2        0.0        0.0        0.0        0.0     0.0     0.0
"Line.L_3026_3027"             1        0.0        0.0        0.0        0.0     0.0     0.0        0.0        0.0        0.0        0.0
"Line.L_3026_3027"             2        0.0        0.0        0.0        0.0     0.0     0.0
"Line.L_3027_3028"             1        0.0        0.0        0.0        0.0     0.0     0.0        0.0        0.0        0.0        0.0
"Line.L_3027_3028"             2        0.0        0.0        0.0        0.0     0.0     0.0
...
"Line.CB_101"                  1       89.2       19.4       -0.0       -0.0    -0.0     0.0        0.0        0.0        0.0        0.0
"Line.CB_101"                  2      -89.2      -19.4        0.0        0.0     0.0    -0.0
"Line.CB_102"                  1        0.0        0.0        0.0        0.0     0.0     0.0        0.0        0.0        0.0        0.0
"Line.CB_102"                  2        0.0        0.0        0.0        0.0     0.0     0.0
"Line.CB_201"                  1      343.0       44.6       -0.0        0.0     0.0     0.0        0.0        0.0        0.0        0.0
"Line.CB_201"                  2     -343.0      -44.6        0.0       -0.0    -0.0    -0.0
"Line.CB_202"                  1      280.5       28.7       -0.0        0.0     0.0     0.0        0.0        0.0        0.0        0.0
"Line.CB_202"                  2     -280.5      -28.7        0.0       -0.0    -0.0    -0.0
"Line.CB_203"                  1      254.7       23.3       -0.0        0.0     0.0    -0.0        0.0        0.0        0.0        0.0
"Line.CB_203"                  2     -254.7      -23.3        0.0       -0.0    -0.0     0.0
"Line.CB_204"                  1        0.0        0.0        0.0        0.0     0.0     0.0        0.0        0.0        0.0        0.0
"Line.CB_204"                  2        0.0        0.0        0.0        0.0     0.0     0.0
"Line.CB_301"                  1      750.1      151.7        0.0       -0.0    -0.0    -0.0        0.0        0.0        0.0        0.0
"Line.CB_301"                  2     -750.1     -151.7       -0.0        0.0     0.0     0.0
"Line.CB_302"                  1      424.8       60.2       -0.0       -0.1    -0.1    -0.1        0.0        0.0        0.0        0.0
"Line.CB_302"                  2     -424.8      -60.2        0.0        0.1     0.1     0.1
"Line.CB_303"                  1        0.0        0.0        0.0        0.0     0.0     0.0        0.0        0.0        0.0        0.0
"Line.CB_303"                  2        0.0        0.0        0.0        0.0     0.0     0.0
"Capacitor.CAP_201"            1        0.0      -52.0        0.0       -0.0    -0.0    -0.0        0.0        0.0        0.0        0.0
"Capacitor.CAP_201"            2        0.0        0.0        0.0        0.0     0.0     0.0
"Capacitor.CAP_301"            1       -0.0      -51.8       -0.0       -0.0    -0.0    -0.0        0.0        0.0        0.0        0.0
"Capacitor.CAP_301"            2        0.0        0.0        0.0        0.0     0.0     0.0
"Load.LOAD_1003"               1       15.3        3.8        0.0       -0.0     0.0    -0.0
"Load.LOAD_1004"               1        6.9        3.3        0.0       -0.0     0.0    -0.0
"Load.LOAD_1005"               1        4.9        1.9        0.0       -0.0     0.0    -0.0
"Load.LOAD_1006"               1        0.0        0.0        0.0        0.0     0.0     0.0
"Load.LOAD_1007"               1        0.0        0.0        0.0        0.0     0.0     0.0
"Load.LOAD_1008"               1       14.1        6.4        0.0       -0.0     0.0    -0.0
"Load.LOAD_1009"               1       17.1        6.8        0.0       -0.0     0.0    -0.0
"Load.LOAD_1010"               1        7.1        2.8        0.0       -0.0     0.0    -0.0
"Load.LOAD_1011"               1        0.0        0.0        0.0        0.0     0.0     0.0
"Load.LOAD_1012"               1        0.0        0.0        0.0        0.0     0.0     0.0
"Load.LOAD_1013"               1        1.5        0.4        0.0       -0.0     0.0    -0.0
"Load.LOAD_1014"               1        0.0        0.0        0.0        0.0     0.0     0.0
"Load.LOAD_1015"               1        0.0        0.0        0.0        0.0     0.0     0.0
"Load.LOAD_1016"               1        0.0        0.0        0.0        0.0     0.0     0.0
"Load.LOAD_1017"               1        0.0        0.0        0.0        0.0     0.0     0.0
"Load.LOAD_2002"               1       27.9       10.1        0.0       -0.0     0.0    -0.0
"Load.LOAD_2003"               1       14.3        3.6        0.0       -0.0     0.0    -0.0
"Load.LOAD_2005"               1        8.9        3.5        0.0       -0.0     0.0    -0.0
"Load.LOAD_2008"               1        0.0        0.0        0.0        0.0     0.0     0.0
"Load.LOAD_2009"               1        0.0        0.0        0.0        0.0     0.0     0.0
"Load.LOAD_2010"               1        2.3        0.9        0.0       -0.0     0.0    -0.0
"Load.LOAD_2011"               1        5.4        1.8        0.0       -0.0     0.0    -0.0
"Load.LOAD_2014"               1        0.0        0.0        0.0        0.0     0.0     0.0
"Load.LOAD_2015"               1        0.0        0.0        0.0        0.0     0.0     0.0
"Load.LOAD_2016"               1        0.0        0.0        0.0        0.0     0.0     0.0
"Load.LOAD_2017"               1        0.0        0.0        0.0        0.0     0.0     0.0
"Load.LOAD_2018"               1        0.0        0.0        0.0        0.0     0.0     0.0
"Load.LOAD_2020"               1        0.0        0.0        0.0        0.0     0.0     0.0
"Load.LOAD_2022"               1        0.0        0.0        0.0        0.0     0.0     0.0
"Load.LOAD_2023"               1        0.0        0.0        0.0        0.0     0.0     0.0
"Load.LOAD_2024"               1        0.0        0.0        0.0        0.0     0.0     0.0
"Load.LOAD_2025"               1        0.0        0.0        0.0        0.0     0.0     0.0
"Load.LOAD_2028"               1        0.0        0.0        0.0        0.0     0.0     0.0
"Load.LOAD_2029"               1        9.4        1.9        0.0       -0.0     0.0    -0.0
"Load.LOAD_2030"               1        5.3        2.6        0.0       -0.0     0.0    -0.0
"Load.LOAD_2031"               1        0.0        0.0        0.0        0.0     0.0     0.0
"Load.LOAD_2032"               1        2.2        1.0        0.0       -0.0     0.0    -0.0
"Load.LOAD_2034"               1        3.6        1.8        0.0       -0.0     0.0    -0.0
"Load.LOAD_2035"               1        3.9        1.4        0.0       -0.0     0.0    -0.0
"Load.LOAD_2037"               1        3.9        1.3        0.0       -0.0     0.0    -0.0
"Load.LOAD_2040"               1       81.8       23.8        0.0       -0.0     0.0    -0.0
"Load.LOAD_2041"               1        1.9        0.4        0.0       -0.0     0.0    -0.0
"Load.LOAD_2042"               1        4.2        2.0        0.0       -0.0     0.0    -0.0
"Load.LOAD_2043"               1        6.5        1.6        0.0       -0.0     0.0    -0.0
"Load.LOAD_2045"               1        0.0        0.0        0.0        0.0     0.0     0.0
"Load.LOAD_2046"               1        0.0        0.0        0.0        0.0     0.0     0.0
"Load.LOAD_2047"               1        0.0        0.0        0.0        0.0     0.0     0.0
"Load.LOAD_2048"               1        0.0        0.0        0.0        0.0     0.0     0.0
"Load.LOAD_2049"               1        0.0        0.0        0.0        0.0     0.0     0.0
"Load.LOAD_2050"               1        0.0        0.0        0.0        0.0     0.0     0.0
"Load.LOAD_2051"               1        0.0        0.0        0.0        0.0     0.0     0.0
"Load.LOAD_2052"               1       40.0       17.1        0.0       -0.0     0.0    -0.0
"Load.LOAD_2053"               1        4.3        2.0        0.0       -0.0     0.0    -0.0
"Load.LOAD_2054"               1        0.0        0.0        0.0        0.0     0.0     0.0
"Load.LOAD_2055"               1        0.0        0.0        0.0        0.0     0.0     0.0
"Load.LOAD_2056"               1        0.0        0.0        0.0        0.0     0.0     0.0
"Load.LOAD_2058"               1       31.5       11.4        0.0       -0.0     0.0    -0.0
"Load.LOAD_2059"               1        0.0        0.0        0.0        0.0     0.0     0.0
"Load.LOAD_2060"               1        0.0        0.0        0.0        0.0     0.0     0.0
"Load.LOAD_3002"               1       19.6        7.1        0.0       -0.0     0.0    -0.0
"Load.LOAD_3004"               1        3.1        1.5        0.0       -0.0     0.0    -0.0
"Load.LOAD_3006"               1        4.0        1.8        0.0       -0.0     0.0    -0.0
"Load.LOAD_3007"               1        9.4        4.6        0.0       -0.0     0.0    -0.0
"Load.LOAD_3009"               1        0.0        0.0        0.0        0.0     0.0     0.0
"Load.LOAD_3010"               1        0.0        0.0        0.0        0.0     0.0     0.0
"Load.LOAD_3011"               1        0.0        0.0        0.0        0.0     0.0     0.0
"Load.LOAD_3012"               1        0.0        0.0        0.0        0.0     0.0     0.0
"Load.LOAD_3013"               1        0.0        0.0        0.0        0.0     0.0     0.0
"Load.LOAD_3014"               1        0.0        0.0        0.0        0.0     0.0     0.0
"Load.LOAD_3016"               1        0.0        0.0        0.0        0.0     0.0     0.0
"Load.LOAD_3017"               1        0.0        0.0        0.0        0.0     0.0     0.0
"Load.LOAD_3018"               1        0.0        0.0        0.0        0.0     0.0     0.0
"Load.LOAD_3019"               1        0.0        0.0        0.0        0.0     0.0     0.0
"Load.LOAD_3020"               1        0.0        0.0        0.0        0.0     0.0     0.0
"Load.LOAD_3021"               1        0.0        0.0        0.0        0.0     0.0     0.0
"Load.LOAD_3023"               1        0.0        0.0        0.0        0.0     0.0     0.0
"Load.LOAD_3024"               1        0.0        0.0        0.0        0.0     0.0     0.0
"Load.LOAD_3025"               1        0.0        0.0        0.0        0.0     0.0     0.0
"Load.LOAD_3026"               1        0.0        0.0        0.0        0.0     0.0     0.0
"Load.LOAD_3027"               1        0.0        0.0        0.0        0.0     0.0     0.0
"Load.LOAD_3028"               1        0.0        0.0        0.0        0.0     0.0     0.0
"Load.LOAD_3029"               1        0.0        0.0        0.0        0.0     0.0     0.0
"Load.LOAD_3031"               1        4.3        0.9        0.0       -0.0     0.0    -0.0
"Load.LOAD_3032"               1        5.7        2.8        0.0       -0.0     0.0    -0.0
"Load.LOAD_3033"               1        9.8        3.5        0.0       -0.0     0.0    -0.0
"Load.LOAD_3034"               1        4.8        0.7        0.0       -0.0     0.0    -0.0
"Load.LOAD_3035"               1       10.9        3.6        0.0       -0.0     0.0    -0.0
"Load.LOAD_3036"               1        4.0        1.2        0.0       -0.0     0.0    -0.0
"Load.LOAD_3037"               1        7.3        2.9        0.0       -0.0     0.0    -0.0
"Load.LOAD_3038"               1        6.1        1.8        0.0       -0.0     0.0    -0.0
"Load.LOAD_3039"               1        5.0        1.0        0.0       -0.0     0.0    -0.0
"Load.LOAD_3041"               1        0.0        0.0        0.0        0.0     0.0     0.0
"Load.LOAD_3042"               1        0.0        0.0        0.0        0.0     0.0     0.0
"Load.LOAD_3043"               1        0.0        0.0        0.0        0.0     0.0     0.0
"Load.LOAD_3044"               1        0.0        0.0        0.0        0.0     0.0     0.0
"Load.LOAD_3045"               1        0.0        0.0        0.0        0.0     0.0     0.0
"Load.LOAD_3047"               1       10.2        3.7        0.0       -0.0     0.0    -0.0
"Load.LOAD_3048"               1        2.9        0.4        0.0       -0.0     0.0    -0.0
"Load.LOAD_3049"               1        1.7        0.7        0.0       -0.0     0.0    -0.0
"Load.LOAD_3050"               1        2.6        1.1        0.0       -0.0     0.0    -0.0
"Load.LOAD_3051"               1        2.4        1.1        0.0       -0.0     0.0    -0.0
"Load.LOAD_3052"               1        6.1        3.0        0.0       -0.0     0.0    -0.0
"Load.LOAD_3054"               1        2.5        1.1        0.0       -0.0     0.0    -0.0
"Load.LOAD_3056"               1        0.0        0.0        0.0        0.0     0.0     0.0
"Load.LOAD_3057"               1        0.0        0.0        0.0        0.0     0.0     0.0
"Load.LOAD_3058"               1        0.0        0.0        0.0        0.0     0.0     0.0
"Load.LOAD_3059"               1        0.0        0.0        0.0        0.0     0.0     0.0
"Load.LOAD_3060"               1        0.0        0.0        0.0        0.0     0.0     0.0
"Load.LOAD_3061"               1        0.0        0.0        0.0        0.0     0.0     0.0
"Load.LOAD_3062"               1        0.0        0.0        0.0        0.0     0.0     0.0
"Load.LOAD_3063"               1        0.0        0.0        0.0        0.0     0.0     0.0
"Load.LOAD_3064"               1        0.0        0.0        0.0        0.0     0.0     0.0
"Load.LOAD_3065"               1        0.0        0.0        0.0        0.0     0.0     0.0
"Load.LOAD_3066"               1        0.0        0.0        0.0        0.0     0.0     0.0
"Load.LOAD_3067"               1        0.0        0.0        0.0        0.0     0.0     0.0
"Load.LOAD_3070"               1        0.8        0.1        0.0       -0.0     0.0    -0.0
"Load.LOAD_3071"               1        2.2        0.7        0.0       -0.0     0.0    -0.0
"Load.LOAD_3072"               1        2.0        0.3        0.0       -0.0     0.0    -0.0
"Load.LOAD_3073"               1        2.3        1.0        0.0       -0.0     0.0    -0.0
"Load.LOAD_3074"               1        4.8        2.2        0.0       -0.0     0.0    -0.0
"Load.LOAD_3077"               1       41.0       16.2        0.0       -0.0     0.0    -0.0
"Load.LOAD_3078"               1        4.0        1.8        0.0       -0.0     0.0    -0.0
"Load.LOAD_3081"               1        1.6        0.4        0.0       -0.0     0.0    -0.0
"Load.LOAD_3083"               1        0.0        0.0        0.0        0.0     0.0     0.0
"Load.LOAD_3084"               1        0.0        0.0        0.0        0.0     0.0     0.0
"Load.LOAD_3085"               1        0.0        0.0        0.0        0.0     0.0     0.0
"Load.LOAD_3086"               1        0.0        0.0        0.0        0.0     0.0     0.0
"Load.LOAD_3087"               1        0.0        0.0        0.0        0.0     0.0     0.0
...